OPT_V10/Two_days_MYC3/powerflow_results_t36.txt
Pandapower Network Debug Info
==================================================

BUS:
       vm_pu  va_degree      p_mw    q_mvar
0   0.998992   0.346028 -0.001875  0.000831
1   0.998531   0.547273 -0.001838  0.001618
2   0.997317   0.696706 -0.000562  0.002433
3   0.997357   0.523779 -0.000730  0.004060
4   0.999918   0.001963  0.005829  0.011568
5   0.999908   0.002058  0.006009  0.007668
6   0.999899   0.002107  0.010539  0.009990
7   0.999953   0.001442  0.000000  0.000000
8   0.999953   0.001447  0.000000  0.000000
9   1.000000   0.000000 -0.017474 -0.043232
10  1.000000   0.000006  0.000000  0.000000
--------------------------------------------------

LINE:
   p_from_mw  q_from_mvar   p_to_mw  q_to_mvar         pl_mw       ql_mvar  i_from_ka   i_to_ka      i_ka  vm_from_pu  va_from_degree  vm_to_pu  va_to_degree  loading_percent
0   0.017464     0.039232 -0.017462  -0.039230  1.803793e-06  1.406447e-06   0.001653  0.001653  0.001653    1.000000        0.000006  0.999953      0.001442         0.718645
1   0.022378     0.029227 -0.022377  -0.029226  1.047903e-06  8.170671e-07   0.001417  0.001417  0.001417    0.999953        0.001442  0.999918      0.001963         0.616044
2  -0.004926     0.009003  0.004976  -0.008965  4.927031e-05  3.841687e-05   0.014814  0.014814  0.014814    0.999953        0.001447  0.998992      0.346028         6.440965
3  -0.016548    -0.017658  0.016548   0.017658  2.025655e-07  1.579436e-07   0.000932  0.000932  0.000932    0.999908        0.002058  0.999918      0.001963         0.405020
4  -0.010539    -0.009990  0.010539   0.009990  1.031439e-07  8.042297e-08   0.000559  0.000559  0.000559    0.999899        0.002107  0.999908      0.002058         0.243029
5   0.002395    -0.004055 -0.002382   0.004065  1.315909e-05  1.026036e-05   0.006807  0.006807  0.006807    0.998531        0.547273  0.998992      0.346028         2.959656
6   0.000730    -0.004060 -0.000719   0.004069  1.142195e-05  8.905879e-06   0.005970  0.005970  0.005970    0.997357        0.523779  0.998992      0.346028         2.595589
7   0.000562    -0.002433 -0.000557   0.002437  5.670064e-06  4.421042e-06   0.003614  0.003614  0.003614    0.997317        0.696706  0.998531      0.547273         1.571154
--------------------------------------------------

TRAFO:
    p_hv_mw  q_hv_mvar   p_lv_mw  q_lv_mvar    pl_mw  ql_mvar   i_hv_ka   i_lv_ka  vm_hv_pu  va_hv_degree  vm_lv_pu  va_lv_degree  loading_percent
0 -0.004916   0.010003  0.004926  -0.009003  0.00001    0.001  0.000429  0.014814  0.999953      0.001442  0.999953      0.001447         0.111467
1  0.017474   0.043232 -0.017464  -0.039232  0.00001    0.004  0.000385  0.001653  1.000000      0.000000  1.000000      0.000006         0.116574
--------------------------------------------------
